# RCH package for  MODFLOW-NWT, generated by Flopy.
         3         0
         1        -1 # Stress period 1
CONSTANT    1.000000E-03                           #rech_1                        
