# UPW package for  MODFLOW-NWT, generated by Flopy.
        53    -1E+30         0         0 
         1
         0
   1.000000E+00
         0
         0
CONSTANT    2.200000E+01                           #hk layer 1                    
CONSTANT    1.000000E+00                           #vka1                          
