# UPW package for MODFLOW-NWT generated by Flopy 3.3.5
        53    -1E+30         0         0 
         1
         0
   1.000000E+00
         0
         0
CONSTANT    2.200000E+01                           #hk                            
CONSTANT    1.000000E+00                           #vk                            
