# DRN package for MODFLOW-NWT generated by Flopy 3.3.5
      9691        53
      9691         0 # stress period 1
         1         1         1        118.4375           125.0
         1         1         2           120.5           125.0
         1         1         3        120.4375           125.0
         1         1         4        118.9375           125.0
         1         1         5        117.1875           125.0
         1         1         6         116.125           125.0
         1         1         7        115.8125           125.0
         1         1         8          114.75           125.0
         1         1         9        117.4375           125.0
         1         1        10        119.5625           125.0
         1         1        11        122.0625           125.0
         1         1        12          124.25           125.0
         1         1        13        127.1875           125.0
         1         1        14        128.0625           125.0
         1         1        15           126.5           125.0
         1         1        16          126.75           125.0
         1         1        17        128.0625           125.0
         1         1        18         129.125           125.0
         1         1        19           131.5           125.0
         1         1        20          131.25           125.0
         1         1        21         128.875           125.0
         1         1        22        126.3125           125.0
         1         1        23          123.25           125.0
         1         1        24           121.0           125.0
         1         1        25          118.25           125.0
         1         1        26        116.4375           125.0
         1         1        27        115.6875           125.0
         1         1        28        114.6875           125.0
         1         1        29         112.875           125.0
         1         1        30        108.6875           125.0
         1         1        31         107.875           125.0
         1         1        32        108.0625           125.0
         1         1        33        109.6875           125.0
         1         1        34        110.4375           125.0
         1         1        35           114.0           125.0
         1         1        36         117.375           125.0
         1         1        37         118.375           125.0
         1         1        38        119.9375           125.0
         1         1        39        120.3125           125.0
         1         1        40        118.0625           125.0
         1         1        41        113.9375           125.0
         1         1        42        110.6875           125.0
         1         1        43         107.125           125.0
         1         1        44        103.6875           125.0
         1         1        45        102.3125           125.0
         1         1        46         103.375           125.0
         1         1        47         103.875           125.0
         1         1        48        101.9375           125.0
         1         1        49        100.3125           125.0
         1         1        50           101.0           125.0
         1         1        51        100.4375           125.0
         1         1        52        102.8125           125.0
         1         1        53          100.75           125.0
         1         1        54         84.3125           125.0
         1         1        55            74.0           125.0
         1         1        56          71.375           125.0
         1         1        57         70.4375           125.0
         1         1        58          69.375           125.0
         1         1        59         60.4375           125.0
         1         1        60          53.875           125.0
         1         1        61            53.5           125.0
         1         1        62            53.0           125.0
         1         1        63            53.0           125.0
         1         1        64            53.0           125.0
         1         1        65            53.0           125.0
         1         1        66            53.0           125.0
         1         1        67            53.0           125.0
         1         1        68            53.0           125.0
         1         1        69            53.0           125.0
         1         1        70            53.0           125.0
         1         1        71            53.0           125.0
         1         1        72            53.0           125.0
         1         1        73            53.0           125.0
         1         1        74            53.0           125.0
         1         1        75            53.0           125.0
         1         1        76            53.0           125.0
         1         1        77            53.0           125.0
         1         1        78            53.0           125.0
         1         1        79            53.0           125.0
         1         1        80            53.0           125.0
         1         1        81            53.0           125.0
         1         1        82            53.0           125.0
         1         1        83            53.0           125.0
         1         1        84            53.0           125.0
         1         1        85            53.0           125.0
         1         1        86            53.0           125.0
         1         1        87            53.0           125.0
         1         1        88            53.0           125.0
         1         1        89            53.0           125.0
         1         1        90            53.0           125.0
         1         1        91            53.0           125.0
         1         1        92            53.0           125.0
         1         1        93            53.0           125.0
         1         1        94            53.0           125.0
         1         1        95            53.0           125.0
         1         1        96            53.0           125.0
         1         1        97            53.0           125.0
         1         1        98            53.0           125.0
         1         1        99            53.0           125.0
         1         1       100            53.0           125.0
         1         2         1        117.6875           125.0
         1         2         2          120.25           125.0
         1         2         3           121.0           125.0
         1         2         4         120.125           125.0
         1         2         5        117.4375           125.0
         1         2         6        115.4375           125.0
         1         2         7           114.0           125.0
         1         2         8          112.75           125.0
         1         2         9         114.875           125.0
         1         2        10        117.8125           125.0
         1         2        11        118.6875           125.0
         1         2        12         118.875           125.0
         1         2        13         121.625           125.0
         1         2        14        124.9375           125.0
         1         2        15        124.5625           125.0
         1         2        16        124.9375           125.0
         1         2        17        127.1875           125.0
         1         2        18         129.125           125.0
         1         2        19         131.125           125.0
         1         2        20        130.5625           125.0
         1         2        21        128.3125           125.0
         1         2        22         125.375           125.0
         1         2        23        122.0625           125.0
         1         2        24         120.375           125.0
         1         2        25         118.125           125.0
         1         2        26        115.6875           125.0
         1         2        27           115.0           125.0
         1         2        28         115.875           125.0
         1         2        29           114.5           125.0
         1         2        30        109.1875           125.0
         1         2        31        107.3125           125.0
         1         2        32        105.6875           125.0
         1         2        33        106.3125           125.0
         1         2        34        108.4375           125.0
         1         2        35        112.0625           125.0
         1         2        36           114.5           125.0
         1         2        37           116.5           125.0
         1         2        38        118.0625           125.0
         1         2        39         120.125           125.0
         1         2        40        118.1875           125.0
         1         2        41        114.0625           125.0
         1         2        42         111.125           125.0
         1         2        43        107.1875           125.0
         1         2        44        104.6875           125.0
         1         2        45           103.5           125.0
         1         2        46           103.0           125.0
         1         2        47          103.75           125.0
         1         2        48         103.375           125.0
         1         2        49         100.875           125.0
         1         2        50         98.4375           125.0
         1         2        51           98.25           125.0
         1         2        52          100.25           125.0
         1         2        53           97.25           125.0
         1         2        54         85.4375           125.0
         1         2        55            74.5           125.0
         1         2        56         71.6875           125.0
         1         2        57         71.8125           125.0
         1         2        58         70.3125           125.0
         1         2        59          66.375           125.0
         1         2        60            54.0           125.0
         1         2        61            53.5           125.0
         1         2        62            53.0           125.0
         1         2        63            53.0           125.0
         1         2        64            53.0           125.0
         1         2        65            53.0           125.0
         1         2        66            53.0           125.0
         1         2        67            53.0           125.0
         1         2        68            53.0           125.0
         1         2        69            53.0           125.0
         1         2        70            53.0           125.0
         1         2        71            53.0           125.0
         1         2        72            53.0           125.0
         1         2        73            53.0           125.0
         1         2        74            53.0           125.0
         1         2        75            53.0           125.0
         1         2        76            53.0           125.0
         1         2        77            53.0           125.0
         1         2        78            53.0           125.0
         1         2        79            53.0           125.0
         1         2        80            53.0           125.0
         1         2        81            53.0           125.0
         1         2        82            53.0           125.0
         1         2        83            53.0           125.0
         1         2        84            53.0           125.0
         1         2        85            53.0           125.0
         1         2        86            53.0           125.0
         1         2        87            53.0           125.0
         1         2        88            53.0           125.0
         1         2        89            53.0           125.0
         1         2        90            53.0           125.0
         1         2        91            53.0           125.0
         1         2        92            53.0           125.0
         1         2        93            53.0           125.0
         1         2        94            53.0           125.0
         1         2        95            53.0           125.0
         1         2        96            53.0           125.0
         1         2        97            53.0           125.0
         1         2        98            53.0           125.0
         1         2        99            53.0           125.0
         1         2       100            53.0           125.0
         1         3         1        117.3125           125.0
         1         3         2        119.3125           125.0
         1         3         3           120.5           125.0
         1         3         4        119.1875           125.0
         1         3         5        117.1875           125.0
         1         3         6        115.1875           125.0
         1         3         7        114.8125           125.0
         1         3         8        113.3125           125.0
         1         3         9        112.3125           125.0
         1         3        10           113.5           125.0
         1         3        11        115.0625           125.0
         1         3        12           116.0           125.0
         1         3        13           117.0           125.0
         1         3        14           119.5           125.0
         1         3        15        121.9375           125.0
         1         3        16         123.375           125.0
         1         3        17          125.25           125.0
         1         3        18         127.375           125.0
         1         3        19        128.8125           125.0
         1         3        20         126.875           125.0
         1         3        21        125.4375           125.0
         1         3        22        123.5625           125.0
         1         3        23         119.625           125.0
         1         3        24        117.6875           125.0
         1         3        25        115.3125           125.0
         1         3        26          113.25           125.0
         1         3        27        113.8125           125.0
         1         3        28        115.0625           125.0
         1         3        29        111.8125           125.0
         1         3        30          108.25           125.0
         1         3        31           107.5           125.0
         1         3        32        105.1875           125.0
         1         3        33        104.6875           125.0
         1         3        34        105.5625           125.0
         1         3        35        108.8125           125.0
         1         3        36        111.3125           125.0
         1         3        37        115.3125           125.0
         1         3        38        117.4375           125.0
         1         3        39        117.1875           125.0
         1         3        40        116.8125           125.0
         1         3        41         113.125           125.0
         1         3        42           110.5           125.0
         1         3        43         107.625           125.0
         1         3        44        105.1875           125.0
         1         3        45        104.4375           125.0
         1         3        46        102.4375           125.0
         1         3        47        101.5625           125.0
         1         3        48        101.6875           125.0
         1         3        49          99.875           125.0
         1         3        50            98.0           125.0
         1         3        51            98.0           125.0
         1         3        52          98.125           125.0
         1         3        53         95.8125           125.0
         1         3        54           85.25           125.0
         1         3        55         75.1875           125.0
         1         3        56            72.0           125.0
         1         3        57            72.0           125.0
         1         3        58          71.875           125.0
         1         3        59         70.5625           125.0
         1         3        60          60.875           125.0
         1         3        61            53.5           125.0
         1         3        62         53.1875           125.0
         1         3        63            53.0           125.0
         1         3        64            53.0           125.0
         1         3        65            53.0           125.0
         1         3        66            53.0           125.0
         1         3        67            53.0           125.0
         1         3        68            53.0           125.0
         1         3        69            53.0           125.0
         1         3        70            53.0           125.0
         1         3        71            53.0           125.0
         1         3        72            53.0           125.0
         1         3        73            53.0           125.0
         1         3        74            53.0           125.0
         1         3        75            53.0           125.0
         1         3        76            53.0           125.0
         1         3        77            53.0           125.0
         1         3        78            53.0           125.0
         1         3        79            53.0           125.0
         1         3        80            53.0           125.0
         1         3        81            53.0           125.0
         1         3        82            53.0           125.0
         1         3        83            53.0           125.0
         1         3        84            53.0           125.0
         1         3        85            53.0           125.0
         1         3        86            53.0           125.0
         1         3        87            53.0           125.0
         1         3        88            53.0           125.0
         1         3        89            53.0           125.0
         1         3        90            53.0           125.0
         1         3        91            53.0           125.0
         1         3        92            53.0           125.0
         1         3        93            53.0           125.0
         1         3        94            53.0           125.0
         1         3        95            53.0           125.0
         1         3        96            53.0           125.0
         1         3        97            53.0           125.0
         1         3        98            53.0           125.0
         1         3        99            53.0           125.0
         1         3       100            53.0           125.0
         1         4         1        117.1875           125.0
         1         4         2         118.125           125.0
         1         4         3           117.5           125.0
         1         4         4         116.125           125.0
         1         4         5         116.125           125.0
         1         4         6        115.3125           125.0
         1         4         7         114.375           125.0
         1         4         8           113.0           125.0
         1         4         9        111.1875           125.0
         1         4        10         110.875           125.0
         1         4        11        111.1875           125.0
         1         4        12        113.1875           125.0
         1         4        13        114.4375           125.0
         1         4        14          116.25           125.0
         1         4        15         118.625           125.0
         1         4        16         121.125           125.0
         1         4        17         121.375           125.0
         1         4        18        124.6875           125.0
         1         4        19           125.5           125.0
         1         4        20          123.25           125.0
         1         4        21         122.875           125.0
         1         4        22        121.4375           125.0
         1         4        23         118.125           125.0
         1         4        24        114.8125           125.0
         1         4        25           112.5           125.0
         1         4        26          109.75           125.0
         1         4        27        112.0625           125.0
         1         4        28         114.125           125.0
         1         4        29         110.875           125.0
         1         4        30        107.4375           125.0
         1         4        31        106.1875           125.0
         1         4        32         104.875           125.0
         1         4        33        103.5625           125.0
         1         4        34         104.875           125.0
         1         4        35         107.875           125.0
         1         4        36         111.375           125.0
         1         4        37        114.9375           125.0
         1         4        38         116.625           125.0
         1         4        39         115.625           125.0
         1         4        40        114.8125           125.0
         1         4        41        111.1875           125.0
         1         4        42           108.5           125.0
         1         4        43        105.0625           125.0
         1         4        44        104.0625           125.0
         1         4        45        103.4375           125.0
         1         4        46        100.5625           125.0
         1         4        47          98.875           125.0
         1         4        48         98.5625           125.0
         1         4        49         97.0625           125.0
         1         4        50          97.125           125.0
         1         4        51         98.5625           125.0
         1         4        52           99.25           125.0
         1         4        53          97.625           125.0
         1         4        54         87.3125           125.0
         1         4        55           76.75           125.0
         1         4        56         71.5625           125.0
         1         4        57         71.0625           125.0
         1         4        58          71.125           125.0
         1         4        59           70.75           125.0
         1         4        60            64.5           125.0
         1         4        61            54.5           125.0
         1         4        62           53.25           125.0
         1         4        63            53.0           125.0
         1         4        64            53.0           125.0
         1         4        65            53.0           125.0
         1         4        66            53.0           125.0
         1         4        67            53.0           125.0
         1         4        68            53.0           125.0
         1         4        69            53.0           125.0
         1         4        70            53.0           125.0
         1         4        71            53.0           125.0
         1         4        72            53.0           125.0
         1         4        73            53.0           125.0
         1         4        74            53.0           125.0
         1         4        75            53.0           125.0
         1         4        76            53.0           125.0
         1         4        77            53.0           125.0
         1         4        78            53.0           125.0
         1         4        79            53.0           125.0
         1         4        80            53.0           125.0
         1         4        81            53.0           125.0
         1         4        82            53.0           125.0
         1         4        83            53.0           125.0
         1         4        84            53.0           125.0
         1         4        85            53.0           125.0
         1         4        86            53.0           125.0
         1         4        87            53.0           125.0
         1         4        88            53.0           125.0
         1         4        89            53.0           125.0
         1         4        90            53.0           125.0
         1         4        91            53.0           125.0
         1         4        92            53.0           125.0
         1         4        93            53.0           125.0
         1         4        94            53.0           125.0
         1         4        95            53.0           125.0
         1         4        96            53.0           125.0
         1         4        97            53.0           125.0
         1         4        98            53.0           125.0
         1         4        99            53.0           125.0
         1         4       100            53.0           125.0
         1         5         1        117.0625           125.0
         1         5         2          117.75           125.0
         1         5         3        116.1875           125.0
         1         5         4        114.3125           125.0
         1         5         5           113.5           125.0
         1         5         6        111.6875           125.0
         1         5         7        109.9375           125.0
         1         5         8        109.1875           125.0
         1         5         9        107.9375           125.0
         1         5        10        109.8125           125.0
         1         5        11          110.25           125.0
         1         5        12           112.5           125.0
         1         5        13        114.6875           125.0
         1         5        14         116.375           125.0
         1         5        15        117.0625           125.0
         1         5        16         118.875           125.0
         1         5        17         118.625           125.0
         1         5        18        120.5625           125.0
         1         5        19          122.25           125.0
         1         5        20          119.75           125.0
         1         5        21          119.25           125.0
         1         5        22         118.875           125.0
         1         5        23        115.8125           125.0
         1         5        24        111.9375           125.0
         1         5        25        109.6875           125.0
         1         5        26        107.3125           125.0
         1         5        27          109.75           125.0
         1         5        28         110.875           125.0
         1         5        29         107.625           125.0
         1         5        30         105.875           125.0
         1         5        31         104.375           125.0
         1         5        32          103.25           125.0
         1         5        33           103.0           125.0
         1         5        34         104.875           125.0
         1         5        35        107.4375           125.0
         1         5        36           110.5           125.0
         1         5        37           114.0           125.0
         1         5        38        116.8125           125.0
         1         5        39           115.0           125.0
         1         5        40        113.3125           125.0
         1         5        41        109.1875           125.0
         1         5        42        104.1875           125.0
         1         5        43         103.125           125.0
         1         5        44         102.375           125.0
         1         5        45        100.8125           125.0
         1         5        46         98.5625           125.0
         1         5        47          97.875           125.0
         1         5        48         96.3125           125.0
         1         5        49         96.1875           125.0
         1         5        50         97.9375           125.0
         1         5        51        100.1875           125.0
         1         5        52           101.0           125.0
         1         5        53         99.8125           125.0
         1         5        54            92.5           125.0
         1         5        55           77.75           125.0
         1         5        56          70.625           125.0
         1         5        57         69.6875           125.0
         1         5        58           69.75           125.0
         1         5        59         70.0625           125.0
         1         5        60         64.3125           125.0
         1         5        61         53.9375           125.0
         1         5        62           53.25           125.0
         1         5        63            53.0           125.0
         1         5        64            53.0           125.0
         1         5        65            53.0           125.0
         1         5        66            53.0           125.0
         1         5        67            53.0           125.0
         1         5        68            53.0           125.0
         1         5        69            53.0           125.0
         1         5        70            53.0           125.0
         1         5        71            53.0           125.0
         1         5        72            53.0           125.0
         1         5        73            53.0           125.0
         1         5        74            53.0           125.0