# DIS package for MODFLOW-NWT generated by Flopy 3.3.5
         1       100       100         1         4         2
  0
CONSTANT    5.000000E+01                           #delr                          
CONSTANT    5.000000E+01                           #delc                          
INTERNAL               1     (FREE) -1 #model_top                     
   1.184375E+02   1.205000E+02   1.204375E+02   1.189375E+02   1.171875E+02   1.161250E+02   1.158125E+02   1.147500E+02   1.174375E+02   1.195625E+02   1.220625E+02   1.242500E+02   1.271875E+02   1.280625E+02   1.265000E+02   1.267500E+02   1.280625E+02   1.291250E+02   1.315000E+02   1.312500E+02   1.288750E+02   1.263125E+02   1.232500E+02   1.210000E+02   1.182500E+02   1.164375E+02   1.156875E+02   1.146875E+02   1.128750E+02   1.086875E+02   1.078750E+02   1.080625E+02   1.096875E+02   1.104375E+02   1.140000E+02   1.173750E+02   1.183750E+02   1.199375E+02   1.203125E+02   1.180625E+02   1.139375E+02   1.106875E+02   1.071250E+02   1.036875E+02   1.023125E+02   1.033750E+02   1.038750E+02   1.019375E+02   1.003125E+02   1.010000E+02   1.004375E+02   1.028125E+02   1.007500E+02   8.431250E+01   7.400000E+01   7.137500E+01   7.043750E+01   6.937500E+01   6.043750E+01   5.387500E+01   5.350000E+01   5.300000E+01   5.300000E+01   5.300000E+01   5.300000E+01   5.300000E+01   5.300000E+01   5.300000E+01   5.300000E+01   5.300000E+01   5.300000E+01   5.300000E+01   5.300000E+01   5.300000E+01   5.300000E+01   5.300000E+01   5.300000E+01   5.300000E+01   5.300000E+01   5.300000E+01   5.300000E+01   5.300000E+01   5.300000E+01   5.300000E+01   5.300000E+01   5.300000E+01   5.300000E+01   5.300000E+01   5.300000E+01   5.300000E+01   5.300000E+01   5.300000E+01   5.300000E+01   5.300000E+01   5.300000E+01   5.300000E+01   5.300000E+01   5.300000E+01   5.300000E+01   5.300000E+01
   1.176875E+02   1.202500E+02   1.210000E+02   1.201250E+02   1.174375E+02   1.154375E+02   1.140000E+02   1.127500E+02   1.148750E+02   1.178125E+02   1.186875E+02   1.188750E+02   1.216250E+02   1.249375E+02   1.245625E+02   1.249375E+02   1.271875E+02   1.291250E+02   1.311250E+02   1.305625E+02   1.283125E+02   1.253750E+02   1.220625E+02   1.203750E+02   1.181250E+02   1.156875E+02   1.150000E+02   1.158750E+02   1.145000E+02   1.091875E+02   1.073125E+02   1.056875E+02   1.063125E+02   1.084375E+02   1.120625E+02   1.145000E+02   1.165000E+02   1.180625E+02   1.201250E+02   1.181875E+02   1.140625E+02   1.111250E+02   1.071875E+02   1.046875E+02   1.035000E+02   1.030000E+02   1.037500E+02   1.033750E+02   1.008750E+02   9.843750E+01   9.825000E+01   1.002500E+02   9.725000E+01   8.543750E+01   7.450000E+01   7.168750E+01   7.181250E+01   7.031250E+01   6.637500E+01   5.400000E+01   5.350000E+01   5.300000E+01   5.300000E+01   5.300000E+01   5.300000E+01   5.300000E+01   5.300000E+01   5.300000E+01   5.300000E+01   5.300000E+01   5.300000E+01   5.300000E+01   5.300000E+01   5.300000E+01   5.300000E+01   5.300000E+01   5.300000E+01   5.300000E+01   5.300000E+01   5.300000E+01   5.300000E+01   5.300000E+01   5.300000E+01   5.300000E+01   5.300000E+01   5.300000E+01   5.300000E+01   5.300000E+01   5.300000E+01   5.300000E+01   5.300000E+01   5.300000E+01   5.300000E+01   5.300000E+01   5.300000E+01   5.300000E+01   5.300000E+01   5.300000E+01   5.300000E+01   5.300000E+01
   1.173125E+02   1.193125E+02   1.205000E+02   1.191875E+02   1.171875E+02   1.151875E+02   1.148125E+02   1.133125E+02   1.123125E+02   1.135000E+02   1.150625E+02   1.160000E+02   1.170000E+02   1.195000E+02   1.219375E+02   1.233750E+02   1.252500E+02   1.273750E+02   1.288125E+02   1.268750E+02   1.254375E+02   1.235625E+02   1.196250E+02   1.176875E+02   1.153125E+02   1.132500E+02   1.138125E+02   1.150625E+02   1.118125E+02   1.082500E+02   1.075000E+02   1.051875E+02   1.046875E+02   1.055625E+02   1.088125E+02   1.113125E+02   1.153125E+02   1.174375E+02   1.171875E+02   1.168125E+02   1.131250E+02   1.105000E+02   1.076250E+02   1.051875E+02   1.044375E+02   1.024375E+02   1.015625E+02   1.016875E+02   9.987500E+01   9.800000E+01   9.800000E+01   9.812500E+01   9.581250E+01   8.525000E+01   7.518750E+01   7.200000E+01   7.200000E+01   7.187500E+01   7.056250E+01   6.087500E+01   5.350000E+01   5.318750E+01   5.300000E+01   5.300000E+01   5.300000E+01   5.300000E+01   5.300000E+01   5.300000E+01   5.300000E+01   5.300000E+01   5.300000E+01   5.300000E+01   5.300000E+01   5.300000E+01   5.300000E+01   5.300000E+01   5.300000E+01   5.300000E+01   5.300000E+01   5.300000E+01   5.300000E+01   5.300000E+01   5.300000E+01   5.300000E+01   5.300000E+01   5.300000E+01   5.300000E+01   5.300000E+01   5.300000E+01   5.300000E+01   5.300000E+01   5.300000E+01   5.300000E+01   5.300000E+01   5.300000E+01   5.300000E+01   5.300000E+01   5.300000E+01   5.300000E+01   5.300000E+01
   1.171875E+02   1.181250E+02   1.175000E+02   1.161250E+02   1.161250E+02   1.153125E+02   1.143750E+02   1.130000E+02   1.111875E+02   1.108750E+02   1.111875E+02   1.131875E+02   1.144375E+02   1.162500E+02   1.186250E+02   1.211250E+02   1.213750E+02   1.246875E+02   1.255000E+02   1.232500E+02   1.228750E+02   1.214375E+02   1.181250E+02   1.148125E+02   1.125000E+02   1.097500E+02   1.120625E+02   1.141250E+02   1.108750E+02   1.074375E+02   1.061875E+02   1.048750E+02   1.035625E+02   1.048750E+02   1.078750E+02   1.113750E+02   1.149375E+02   1.166250E+02   1.156250E+02   1.148125E+02   1.111875E+02   1.085000E+02   1.050625E+02   1.040625E+02   1.034375E+02   1.005625E+02   9.887500E+01   9.856250E+01   9.706250E+01   9.712500E+01   9.856250E+01   9.925000E+01   9.762500E+01   8.731250E+01   7.675000E+01   7.156250E+01   7.106250E+01   7.112500E+01   7.075000E+01   6.450000E+01   5.450000E+01   5.325000E+01   5.300000E+01   5.300000E+01   5.300000E+01   5.300000E+01   5.300000E+01   5.300000E+01   5.300000E+01   5.300000E+01   5.300000E+01   5.300000E+01   5.300000E+01   5.300000E+01   5.300000E+01   5.300000E+01   5.300000E+01   5.300000E+01   5.300000E+01   5.300000E+01   5.300000E+01   5.300000E+01   5.300000E+01   5.300000E+01   5.300000E+01   5.300000E+01   5.300000E+01   5.300000E+01   5.300000E+01   5.300000E+01   5.300000E+01   5.300000E+01   5.300000E+01   5.300000E+01   5.300000E+01   5.300000E+01   5.300000E+01   5.300000E+01   5.300000E+01   5.300000E+01
   1.170625E+02   1.177500E+02   1.161875E+02   1.143125E+02   1.135000E+02   1.116875E+02   1.099375E+02   1.091875E+02   1.079375E+02   1.098125E+02   1.102500E+02   1.125000E+02   1.146875E+02   1.163750E+02   1.170625E+02   1.188750E+02   1.186250E+02   1.205625E+02   1.222500E+02   1.197500E+02   1.192500E+02   1.188750E+02   1.158125E+02   1.119375E+02   1.096875E+02   1.073125E+02   1.097500E+02   1.108750E+02   1.076250E+02   1.058750E+02   1.043750E+02   1.032500E+02   1.030000E+02   1.048750E+02   1.074375E+02   1.105000E+02   1.140000E+02   1.168125E+02   1.150000E+02   1.133125E+02   1.091875E+02   1.041875E+02   1.031250E+02   1.023750E+02   1.008125E+02   9.856250E+01   9.787500E+01   9.631250E+01   9.618750E+01   9.793750E+01   1.001875E+02   1.010000E+02   9.981250E+01   9.250000E+01   7.775000E+01   7.062500E+01   6.968750E+01   6.975000E+01   7.006250E+01   6.431250E+01   5.393750E+01   5.325000E+01   5.300000E+01   5.300000E+01   5.300000E+01   5.300000E+01   5.300000E+01   5.300000E+01   5.300000E+01   5.300000E+01   5.300000E+01   5.300000E+01   5.300000E+01   5.300000E+01   5.300000E+01   5.300000E+01   5.300000E+01   5.300000E+01   5.300000E+01   5.300000E+01   5.300000E+01   5.300000E+01   5.300000E+01   5.300000E+01   5.300000E+01   5.300000E+01   5.300000E+01   5.300000E+01   5.300000E+01   5.300000E+01   5.300000E+01   5.300000E+01   5.300000E+01   5.300000E+01   5.300000E+01   5.300000E+01   5.300000E+01   5.300000E+01   5.300000E+01   5.300000E+01
   1.180625E+02   1.171875E+02   1.161250E+02   1.123750E+02   1.096875E+02   1.072500E+02   1.065625E+02   1.059375E+02   1.050625E+02   1.075000E+02   1.098125E+02   1.123750E+02   1.144375E+02   1.176250E+02   1.186875E+02   1.187500E+02   1.170000E+02   1.169375E+02   1.187500E+02   1.178125E+02   1.165625E+02   1.146875E+02   1.124375E+02   1.096875E+02   1.079375E+02   1.061875E+02   1.064375E+02   1.047500E+02   1.027500E+02   1.026875E+02   1.023125E+02   1.035000E+02   1.056875E+02   1.057500E+02   1.059375E+02   1.090000E+02   1.128125E+02   1.156875E+02   1.146875E+02   1.131250E+02   1.078750E+02   1.030625E+02   1.025625E+02   1.010625E+02   9.943750E+01   9.850000E+01   9.775000E+01   9.662500E+01   9.700000E+01   9.800000E+01   1.008750E+02   1.019375E+02   1.010000E+02   9.687500E+01   8.193750E+01   7.156250E+01   6.931250E+01   7.018750E+01   7.043750E+01   6.531250E+01   5.406250E+01   5.325000E+01   5.300000E+01   5.300000E+01   5.300000E+01   5.300000E+01   5.300000E+01   5.300000E+01   5.300000E+01   5.300000E+01   5.300000E+01   5.300000E+01   5.300000E+01   5.300000E+01   5.300000E+01   5.300000E+01   5.300000E+01   5.300000E+01   5.300000E+01   5.300000E+01   5.300000E+01   5.300000E+01   5.300000E+01   5.300000E+01   5.300000E+01   5.300000E+01   5.300000E+01   5.300000E+01   5.300000E+01   5.300000E+01   5.300000E+01   5.300000E+01   5.300000E+01   5.300000E+01   5.300000E+01   5.300000E+01   5.300000E+01   5.300000E+01   5.300000E+01   5.300000E+01
   1.138125E+02   1.125000E+02   1.116250E+02   1.096875E+02   1.069375E+02   1.045625E+02   1.031250E+02   1.031875E+02   1.035000E+02   1.045000E+02   1.073750E+02   1.103125E+02   1.124375E+02   1.163750E+02   1.185625E+02   1.176875E+02   1.155625E+02   1.145000E+02   1.156250E+02   1.145000E+02   1.145000E+02   1.128125E+02   1.108125E+02   1.079375E+02   1.050000E+02   1.048125E+02   1.052500E+02   1.021250E+02   1.000000E+02   1.008125E+02   1.020000E+02   1.065000E+02   1.100625E+02   1.085625E+02   1.062500E+02   1.090000E+02   1.117500E+02   1.140625E+02   1.129375E+02   1.106875E+02   1.073750E+02   1.031875E+02   1.020000E+02   1.003750E+02   9.906250E+01   9.893750E+01   9.787500E+01   9.743750E+01   9.712500E+01   9.818750E+01   1.020000E+02   1.028750E+02   1.021875E+02   1.000000E+02   8.787500E+01   7.456250E+01   7.106250E+01   7.150000E+01   7.262500E+01   6.693750E+01   5.612500E+01   5.318750E+01   5.300000E+01   5.300000E+01   5.300000E+01   5.300000E+01   5.300000E+01   5.300000E+01   5.300000E+01   5.300000E+01   5.300000E+01   5.300000E+01   5.300000E+01   5.300000E+01   5.300000E+01   5.300000E+01   5.300000E+01   5.300000E+01   5.300000E+01   5.300000E+01   5.300000E+01   5.300000E+01   5.300000E+01   5.300000E+01   5.300000E+01   5.300000E+01   5.300000E+01   5.300000E+01   5.300000E+01   5.300000E+01   5.300000E+01   5.300000E+01   5.300000E+01   5.300000E+01   5.300000E+01   5.300000E+01   5.300000E+01   5.300000E+01   5.300000E+01   5.300000E+01
   1.063125E+02   1.054375E+02   1.053125E+02   1.058750E+02   1.040625E+02   1.021875E+02   1.010625E+02   1.008750E+02   1.021875E+02   1.021875E+02   1.020000E+02   1.047500E+02   1.087500E+02   1.126875E+02   1.148750E+02   1.147500E+02   1.145000E+02   1.128125E+02   1.120000E+02   1.118750E+02   1.122500E+02   1.113750E+02   1.090625E+02   1.066250E+02   1.045000E+02   1.035000E+02   1.031875E+02   1.020000E+02   1.012500E+02   1.016875E+02   1.032500E+02   1.053750E+02   1.062500E+02   1.056250E+02   1.051875E+02   1.078125E+02   1.106875E+02   1.127500E+02   1.112500E+02   1.088750E+02   1.066875E+02   1.025000E+02   1.022500E+02   1.016250E+02   1.008125E+02   1.000000E+02   9.806250E+01   9.906250E+01   9.981250E+01   1.008750E+02   1.031875E+02   1.051875E+02   1.050000E+02   1.026250E+02   9.456250E+01   7.843750E+01   7.150000E+01   7.087500E+01   7.168750E+01   6.750000E+01   6.025000E+01   5.425000E+01   5.300000E+01   5.300000E+01   5.300000E+01   5.300000E+01   5.300000E+01   5.300000E+01   5.300000E+01   5.300000E+01   5.300000E+01   5.300000E+01   5.300000E+01   5.300000E+01   5.300000E+01   5.300000E+01   5.300000E+01   5.300000E+01   5.300000E+01   5.300000E+01   5.300000E+01   5.300000E+01   5.300000E+01   5.300000E+01   5.300000E+01   5.300000E+01   5.300000E+01   5.300000E+01   5.300000E+01   5.300000E+01   5.300000E+01   5.300000E+01   5.300000E+01   5.300000E+01   5.300000E+01   5.300000E+01   5.300000E+01   5.300000E+01   5.300000E+01   5.300000E+01
   1.024375E+02   1.015000E+02   1.008125E+02   1.011250E+02   1.007500E+02   9.937500E+01   9.975000E+01   1.015000E+02   1.013125E+02   1.006250E+02   1.002500E+02   1.009375E+02   1.031875E+02   1.056875E+02   1.081875E+02   1.103750E+02   1.115000E+02   1.096875E+02   1.088125E+02   1.090625E+02   1.081875E+02   1.075000E+02   1.063125E+02   1.050625E+02   1.032500E+02   1.020000E+02   1.023750E+02   1.020625E+02   1.013125E+02   1.041875E+02   1.056250E+02   1.053750E+02   1.048125E+02   1.040625E+02   1.055000E+02   1.088750E+02   1.096250E+02   1.109375E+02   1.093750E+02   1.066875E+02   1.046875E+02   1.030000E+02   1.031875E+02   1.018125E+02   1.019375E+02   1.010000E+02   1.001875E+02   1.004375E+02   1.014375E+02   1.016875E+02   1.036250E+02   1.063750E+02   1.068750E+02   1.051875E+02   9.943750E+01   8.225000E+01   7.031250E+01   6.931250E+01   7.062500E+01   6.825000E+01   6.137500E+01   5.431250E+01   5.300000E+01   5.300000E+01   5.300000E+01   5.300000E+01   5.300000E+01   5.300000E+01   5.300000E+01   5.300000E+01   5.300000E+01   5.300000E+01   5.300000E+01   5.300000E+01   5.300000E+01   5.300000E+01   5.300000E+01   5.300000E+01   5.300000E+01   5.300000E+01   5.300000E+01   5.300000E+01   5.300000E+01   5.300000E+01   5.300000E+01   5.300000E+01   5.300000E+01   5.300000E+01   5.300000E+01   5.300000E+01   5.300000E+01   5.300000E+01   5.300000E+01   5.300000E+01   5.300000E+01   5.300000E+01   5.300000E+01   5.300000E+01   5.300000E+01   5.300000E+01
   1.016250E+02   1.008125E+02   9.943750E+01   9.843750E+01   9.900000E+01   9.900000E+01   1.000000E+02   1.000625E+02   1.002500E+02   9.968750E+01   9.887500E+01   1.005000E+02   1.015625E+02   1.017500E+02   1.020000E+02   1.051250E+02   1.066250E+02   1.060000E+02   1.061250E+02   1.046250E+02   1.028750E+02   1.016250E+02   1.022500E+02   1.020000E+02   1.016875E+02   1.012500E+02   1.015000E+02   1.018750E+02   1.014375E+02   1.066250E+02   1.083750E+02   1.063750E+02   1.063125E+02   1.048750E+02   1.063750E+02   1.102500E+02   1.103125E+02   1.091875E+02   1.063125E+02   1.017500E+02   1.003125E+02   1.004375E+02   1.000000E+02   9.956250E+01   1.008125E+02   1.013125E+02   1.015000E+02   1.000625E+02   1.006250E+02   1.010000E+02   1.015000E+02   1.053125E+02   1.060000E+02   1.043750E+02   1.010000E+02   8.425000E+01   7.037500E+01   6.843750E+01   6.912500E+01   6.743750E+01   6.193750E+01   5.412500E+01   5.300000E+01   5.300000E+01   5.300000E+01   5.300000E+01   5.300000E+01   5.300000E+01   5.300000E+01   5.300000E+01   5.300000E+01   5.300000E+01   5.300000E+01   5.300000E+01   5.300000E+01   5.300000E+01   5.300000E+01   5.300000E+01   5.300000E+01   5.300000E+01   5.300000E+01   5.300000E+01   5.300000E+01   5.300000E+01   5.300000E+01   5.300000E+01   5.300000E+01   5.300000E+01   5.300000E+01   5.300000E+01   5.300000E+01   5.300000E+01   5.300000E+01   5.300000E+01   5.300000E+01   5.300000E+01   5.300000E+01   5.300000E+01   5.300000E+01   5.300000E+01
   1.010000E+02   1.006875E+02   9.881250E+01   9.831250E+01   9.900000E+01   9.900000E+01   9.925000E+01   9.912500E+01   1.000000E+02   9.881250E+01   9.856250E+01   1.005000E+02   1.016250E+02   1.005625E+02   9.993750E+01   1.026875E+02   1.036250E+02   1.045000E+02   1.034375E+02   1.008750E+02   9.956250E+01   1.002500E+02   1.021250E+02   1.018750E+02   1.020000E+02   1.007500E+02   1.007500E+02   1.017500E+02   1.013125E+02   1.050625E+02   1.063125E+02   1.056875E+02   1.060000E+02   1.067500E+02   1.090625E+02   1.110000E+02   1.101875E+02   1.101250E+02   1.066875E+02   1.006250E+02   9.812500E+01   9.750000E+01   9.687500E+01   9.887500E+01   1.002500E+02   1.008750E+02   1.013125E+02   9.968750E+01   1.020625E+02   1.023750E+02   1.001875E+02   1.027500E+02   1.053750E+02   1.058125E+02   1.028750E+02   8.725000E+01   7.100000E+01   6.800000E+01   6.875000E+01   6.881250E+01   6.325000E+01   5.418750E+01   5.300000E+01   5.300000E+01   5.300000E+01   5.300000E+01   5.300000E+01   5.300000E+01   5.300000E+01   5.300000E+01   5.300000E+01   5.300000E+01   5.300000E+01   5.300000E+01   5.300000E+01   5.300000E+01   5.300000E+01   5.300000E+01   5.300000E+01   5.300000E+01   5.300000E+01   5.300000E+01   5.300000E+01   5.300000E+01   5.300000E+01   5.300000E+01   5.300000E+01   5.300000E+01   5.300000E+01   5.300000E+01   5.300000E+01   5.300000E+01   5.300000E+01   5.300000E+01   5.300000E+01   5.300000E+01   5.300000E+01   5.300000E+01   5.300000E+01   5.300000E+01
   9.968750E+01   1.000000E+02   9.950000E+01   9.931250E+01   9.993750E+01   9.925000E+01   1.002500E+02   1.005000E+02   9.962500E+01   9.875000E+01   9.887500E+01   9.993750E+01   1.005625E+02   9.931250E+01   9.968750E+01   1.003125E+02   1.016875E+02   1.022500E+02   1.025000E+02   1.004375E+02   9.887500E+01   1.004375E+02   1.033750E+02   1.039375E+02   1.026875E+02   9.981250E+01   1.001250E+02   1.010000E+02   1.027500E+02   1.042500E+02   1.045000E+02   1.056875E+02   1.062500E+02   1.101875E+02   1.130625E+02   1.120000E+02   1.111875E+02   1.101250E+02   1.070625E+02   1.025625E+02   9.900000E+01   9.756250E+01   9.700000E+01   9.912500E+01   1.000000E+02   9.931250E+01   9.875000E+01   9.893750E+01   1.023750E+02   1.031250E+02   1.001875E+02   1.031875E+02   1.060000E+02   1.052500E+02   1.013750E+02   8.756250E+01   7.225000E+01   6.762500E+01   6.881250E+01   6.837500E+01   6.650000E+01   5.468750E+01   5.300000E+01   5.300000E+01   5.300000E+01   5.300000E+01   5.300000E+01   5.300000E+01   5.300000E+01   5.300000E+01   5.300000E+01   5.300000E+01   5.300000E+01   5.300000E+01   5.300000E+01   5.300000E+01   5.300000E+01   5.300000E+01   5.300000E+01   5.300000E+01   5.300000E+01   5.300000E+01   5.300000E+01   5.300000E+01   5.300000E+01   5.300000E+01   5.300000E+01   5.300000E+01   5.300000E+01   5.300000E+01   5.300000E+01   5.300000E+01   5.300000E+01   5.300000E+01   5.300000E+01   5.300000E+01   5.300000E+01   5.300000E+01   5.300000E+01   5.300000E+01
   1.001250E+02   1.004375E+02   9.962500E+01   9.856250E+01   9.981250E+01   1.016875E+02   1.020000E+02   1.010000E+02   1.005625E+02   1.000000E+02   9.987500E+01   9.918750E+01   1.000000E+02   9.987500E+01   9.993750E+01   9.925000E+01   1.006250E+02   1.000000E+02   1.003125E+02   9.925000E+01   9.793750E+01   9.893750E+01   1.029375E+02   1.041250E+02   1.027500E+02   1.003125E+02   9.968750E+01   1.013750E+02   1.036250E+02   1.056875E+02   1.050000E+02   1.050000E+02   1.065625E+02   1.118750E+02   1.147500E+02   1.145625E+02   1.126875E+02   1.110000E+02   1.091875E+02   1.045625E+02   9.950000E+01   9.793750E+01   9.718750E+01   9.962500E+01   1.004375E+02   9.962500E+01   9.881250E+01   9.887500E+01   1.005625E+02   1.018750E+02   1.006250E+02   1.045000E+02   1.068125E+02   1.055625E+02   1.017500E+02   8.756250E+01   7.156250E+01   6.812500E+01   6.893750E+01   6.875000E+01   6.862500E+01   6.243750E+01   5.425000E+01   5.300000E+01   5.300000E+01   5.300000E+01   5.300000E+01   5.300000E+01   5.300000E+01   5.300000E+01   5.300000E+01   5.300000E+01   5.300000E+01   5.300000E+01   5.300000E+01   5.300000E+01   5.300000E+01   5.300000E+01   5.300000E+01   5.300000E+01   5.300000E+01   5.300000E+01   5.300000E+01   5.300000E+01   5.300000E+01   5.300000E+01   5.300000E+01   5.300000E+01   5.300000E+01   5.300000E+01   5.300000E+01   5.300000E+01   5.300000E+01   5.300000E+01   5.300000E+01   5.300000E+01   5.300000E+01   5.300000E+01   5.300000E+01   5.300000E+01
   1.015625E+02   1.008125E+02   9.918750E+01   9.850000E+01   1.005000E+02   1.018125E+02   1.017500E+02   1.010000E+02   1.015000E+02   1.015000E+02   1.014375E+02   1.005000E+02   1.000625E+02   9.918750E+01   9.887500E+01   9.918750E+01   9.975000E+01   9.868750E+01   9.781250E+01   9.718750E+01   9.750000E+01   1.001875E+02   1.032500E+02   1.045000E+02   1.036250E+02   1.009375E+02   1.004375E+02   1.022500E+02   1.030625E+02   1.038125E+02   1.045000E+02   1.046250E+02   1.070625E+02   1.117500E+02   1.142500E+02   1.136250E+02   1.116250E+02   1.105625E+02   1.096250E+02   1.047500E+02   9.975000E+01   9.743750E+01   9.650000E+01   9.893750E+01   1.010000E+02   1.002500E+02   9.975000E+01   9.900000E+01   9.906250E+01   1.001875E+02   9.937500E+01   1.031250E+02   1.061250E+02   1.036250E+02   1.016250E+02   8.956250E+01   7.206250E+01   6.800000E+01   6.800000E+01   6.825000E+01   6.856250E+01   6.718750E+01   5.875000E+01   5.318750E+01   5.300000E+01   5.300000E+01   5.300000E+01   5.300000E+01   5.300000E+01   5.300000E+01   5.300000E+01   5.300000E+01   5.300000E+01   5.300000E+01   5.300000E+01   5.300000E+01   5.300000E+01   5.300000E+01   5.300000E+01   5.300000E+01   5.300000E+01   5.300000E+01   5.300000E+01   5.300000E+01   5.300000E+01   5.300000E+01   5.300000E+01   5.300000E+01   5.300000E+01   5.300000E+01   5.300000E+01   5.300000E+01   5.300000E+01   5.300000E+01   5.300000E+01   5.300000E+01   5.300000E+01   5.300000E+01   5.300000E+01   5.300000E+01
   1.012500E+02   1.015000E+02   9.987500E+01   9.943750E+01   1.012500E+02   1.018125E+02   1.018750E+02   1.010625E+02   1.017500E+02   1.020000E+02   1.020000E+02   1.015000E+02   1.008125E+02   9.931250E+01   9.831250E+01   9.956250E+01   1.008750E+02   9.968750E+01   9.962500E+01   9.856250E+01   9.800000E+01   9.993750E+01   1.041250E+02   1.048125E+02   1.037500E+02   1.015000E+02   9.975000E+01   1.016875E+02   1.022500E+02   1.016250E+02   1.023125E+02   1.036875E+02   1.061875E+02   1.096875E+02   1.136875E+02   1.128125E+02   1.104375E+02   1.096875E+02   1.078750E+02   1.047500E+02   1.009375E+02   9.756250E+01   9.700000E+01   9.806250E+01   1.007500E+02   9.950000E+01   9.862500E+01   9.831250E+01   9.962500E+01   1.015000E+02   1.009375E+02   1.028125E+02   1.049375E+02   1.034375E+02   1.008750E+02   8.925000E+01   7.293750E+01   6.725000E+01   6.787500E+01   6.887500E+01   6.968750E+01   7.018750E+01   6.575000E+01   5.612500E+01   5.300000E+01   5.300000E+01   5.300000E+01   5.300000E+01   5.300000E+01   5.300000E+01   5.300000E+01   5.300000E+01   5.300000E+01   5.300000E+01   5.300000E+01   5.300000E+01   5.300000E+01   5.300000E+01   5.300000E+01   5.300000E+01   5.300000E+01   5.300000E+01   5.300000E+01   5.300000E+01   5.300000E+01   5.300000E+01   5.300000E+01   5.300000E+01   5.300000E+01   5.300000E+01   5.300000E+01   5.300000E+01   5.300000E+01   5.300000E+01   5.300000E+01   5.300000E+01   5.300000E+01   5.300000E+01   5.300000E+01   5.300000E+01
   1.000000E+02   1.002500E+02   1.010000E+02   1.003125E+02   1.016875E+02   1.026250E+02   1.030000E+02   1.023125E+02   1.030000E+02   1.026250E+02   1.019375E+02   1.010625E+02   1.009375E+02   1.006250E+02   9.837500E+01   9.887500E+01   1.005000E+02   1.000000E+02   1.007500E+02   9.981250E+01   1.005000E+02   1.015625E+02   1.036875E+02   1.040625E+02   1.031875E+02   1.019375E+02   9.950000E+01   1.003125E+02   1.003750E+02   1.005000E+02   1.016250E+02   1.016250E+02   1.061875E+02   1.091250E+02   1.113750E+02   1.111875E+02   1.092500E+02   1.082500E+02   1.065000E+02   1.035625E+02   1.003125E+02   9.837500E+01   9.681250E+01   9.712500E+01   9.893750E+01   9.912500E+01   9.781250E+01   9.712500E+01   9.837500E+01   1.011875E+02   1.010000E+02   1.018750E+02   1.048125E+02   1.043125E+02   1.018125E+02   9.106250E+01   7.456250E+01   6.700000E+01   6.862500E+01   7.131250E+01   7.175000E+01   7.143750E+01   6.781250E+01   5.956250E+01   5.387500E+01   5.300000E+01   5.300000E+01   5.300000E+01   5.300000E+01   5.300000E+01   5.300000E+01   5.300000E+01   5.300000E+01   5.300000E+01   5.300000E+01   5.300000E+01   5.300000E+01   5.300000E+01   5.300000E+01   5.300000E+01   5.300000E+01   5.300000E+01   5.300000E+01   5.300000E+01   5.300000E+01   5.300000E+01   5.300000E+01   5.300000E+01   5.300000E+01   5.300000E+01   5.300000E+01   5.300000E+01   5.300000E+01   5.300000E+01   5.300000E+01   5.300000E+01   5.300000E+01   5.300000E+01   5.300000E+01   5.300000E+01
   1.022500E+02   1.018125E+02   1.032500E+02   1.049375E+02   1.065625E+02   1.061875E+02   1.054375E+02   1.051875E+02   1.045000E+02   1.039375E+02   1.016250E+02   1.010000E+02   1.007500E+02   1.010000E+02   9.918750E+01   9.906250E+01   9.987500E+01   1.000000E+02   1.000000E+02   9.975000E+01   1.015000E+02   1.020000E+02   1.029375E+02   1.031875E+02   1.034375E+02   1.027500E+02   1.003125E+02   1.004375E+02   1.003750E+02   1.002500E+02   9.981250E+01   1.004375E+02   1.030625E+02   1.050625E+02   1.081250E+02   1.085000E+02   1.085000E+02   1.066250E+02   1.038125E+02   1.015000E+02   9.987500E+01   9.800000E+01   9.681250E+01   9.700000E+01   9.725000E+01   9.750000E+01   9.650000E+01   9.600000E+01   9.681250E+01   9.862500E+01   9.918750E+01   1.009375E+02   1.048125E+02   1.052500E+02   1.040000E+02   9.406250E+01   7.750000E+01   6.737500E+01   6.775000E+01   6.968750E+01   7.031250E+01   7.037500E+01   6.800000E+01   6.043750E+01   5.443750E+01   5.375000E+01   5.300000E+01   5.300000E+01   5.300000E+01   5.300000E+01   5.300000E+01   5.300000E+01   5.300000E+01   5.300000E+01   5.300000E+01   5.300000E+01   5.300000E+01   5.300000E+01   5.300000E+01   5.300000E+01   5.300000E+01   5.300000E+01   5.300000E+01   5.300000E+01   5.300000E+01   5.300000E+01   5.300000E+01   5.300000E+01   5.300000E+01   5.300000E+01   5.300000E+01   5.300000E+01   5.300000E+01   5.300000E+01   5.300000E+01   5.300000E+01   5.300000E+01   5.300000E+01   5.300000E+01   5.300000E+01
   1.047500E+02   1.041875E+02   1.058750E+02   1.075625E+02   1.088750E+02   1.078125E+02   1.070000E+02   1.069375E+02   1.054375E+02   1.041250E+02   1.003125E+02   9.981250E+01   1.006875E+02   1.002500E+02   9.931250E+01   9.900000E+01   9.875000E+01   9.900000E+01   9.943750E+01   9.925000E+01   1.010000E+02   1.010000E+02   1.014375E+02   1.025000E+02   1.048750E+02   1.041875E+02   1.027500E+02   1.018125E+02   1.015625E+02   9.981250E+01   9.937500E+01   1.008125E+02   1.035625E+02   1.061875E+02   1.082500E+02   1.089375E+02   1.079375E+02   1.061250E+02   1.038750E+02   1.038125E+02   1.033750E+02   1.006250E+02   1.001875E+02   9.906250E+01   9.681250E+01   9.600000E+01   9.650000E+01   9.662500E+01   9.706250E+01   9.668750E+01   9.800000E+01   1.002500E+02   1.029375E+02   1.041250E+02   1.012500E+02   9.281250E+01   7.856250E+01   6.650000E+01   6.443750E+01   6.668750E+01   6.743750E+01   6.756250E+01   6.475000E+01   5.856250E+01   5.500000E+01   5.500000E+01   5.356250E+01   5.300000E+01   5.300000E+01   5.300000E+01   5.300000E+01   5.300000E+01   5.300000E+01   5.300000E+01   5.300000E+01   5.300000E+01   5.300000E+01   5.300000E+01   5.300000E+01   5.300000E+01   5.300000E+01   5.300000E+01   5.300000E+01   5.300000E+01   5.300000E+01   5.300000E+01   5.300000E+01   5.300000E+01   5.300000E+01   5.300000E+01   5.300000E+01   5.300000E+01   5.300000E+01   5.300000E+01   5.300000E+01   5.300000E+01   5.300000E+01   5.300000E+01   5.300000E+01   5.300000E+01
   1.091875E+02   1.094375E+02   1.086250E+02   1.088750E+02   1.090000E+02   1.070625E+02   1.060625E+02   1.052500E+02   1.048750E+02   1.025625E+02   9.962500E+01   9.950000E+01   9.987500E+01   9.843750E+01   9.825000E+01   9.900000E+01   9.850000E+01   9.900000E+01   9.881250E+01   9.893750E+01   1.001875E+02   1.005000E+02   1.010000E+02   1.028750E+02   1.040000E+02   1.040000E+02   1.035000E+02   1.009375E+02   1.002500E+02   9.950000E+01   1.009375E+02   1.029375E+02   1.060000E+02   1.086875E+02   1.089375E+02   1.089375E+02   1.081250E+02   1.069375E+02   1.068750E+02   1.081250E+02   1.063750E+02   1.017500E+02   1.010000E+02   1.006875E+02   9.918750E+01   9.737500E+01   9.612500E+01   9.668750E+01   9.787500E+01   9.725000E+01   9.806250E+01   1.001250E+02   1.020000E+02   1.011250E+02   9.443750E+01   8.350000E+01   7.337500E+01   6.650000E+01   6.418750E+01   6.562500E+01   6.606250E+01   6.456250E+01   6.200000E+01   5.725000E+01   5.518750E+01   5.700000E+01   5.556250E+01   5.306250E+01   5.300000E+01   5.300000E+01   5.300000E+01   5.300000E+01   5.300000E+01   5.300000E+01   5.300000E+01   5.300000E+01   5.300000E+01   5.300000E+01   5.300000E+01   5.300000E+01   5.300000E+01   5.300000E+01   5.300000E+01   5.300000E+01   5.300000E+01   5.300000E+01   5.300000E+01   5.300000E+01   5.300000E+01   5.300000E+01   5.300000E+01   5.300000E+01   5.300000E+01   5.300000E+01   5.300000E+01   5.300000E+01   5.300000E+01   5.300000E+01   5.300000E+01   5.300000E+01